71496458
  -OEChem-03132210153D

 70 73  0     1  0  0  0  0  0999 V2000
    2.5800   -3.7798    0.1575 O   0  0  0  0  0  0  0  0  0  0  0  0
   -0.9619    1.1797   -2.0847 O   0  0  0  0  0  0  0  0  0  0  0  0
    4.0475    0.6100   -1.1047 N   0  0  3  0  0  0  0  0  0  0  0  0
   -5.1887    1.3569    0.4454 N   0  0  0  0  0  0  0  0  0  0  0  0
    5.8294    1.7155    1.9601 N   0  0  0  0  0  0  0  0  0  0  0  0
   -0.0813   -3.1358   -0.4783 N   0  0  0  0  0  0  0  0  0  0  0  0
    1.3654    1.2872   -1.7553 N   0  0  0  0  0  0  0  0  0  0  0  0
   -1.9103   -1.7423   -0.0110 N   0  0  0  0  0  0  0  0  0  0  0  0
   -2.1716   -4.1359   -0.1085 N   0  0  0  0  0  0  0  0  0  0  0  0
    4.4021    1.4970   -0.0162 C   0  0  0  0  0  0  0  0  0  0  0  0
    2.9986   -0.3240   -0.9514 C   0  0  0  0  0  0  0  0  0  0  0  0
    5.4401    0.8254    0.8736 C   0  0  0  0  0  0  0  0  0  0  0  0
   -3.0776    0.8453    0.9537 C   0  0  0  0  0  0  0  0  0  0  0  0
   -4.0141    1.8811    0.9361 C   0  0  0  0  0  0  0  0  0  0  0  0
   -3.7311   -0.3170    0.4568 C   0  0  0  0  0  0  0  0  0  0  0  0
    1.6841    0.0144   -1.2730 C   0  0  0  0  0  0  0  0  0  0  0  0
    3.2927   -1.6003   -0.4713 C   0  0  0  0  0  0  0  0  0  0  0  0
   -5.0275    0.0291    0.1530 C   0  0  0  0  0  0  0  0  0  0  0  0
    0.9578   -2.1997   -0.6343 C   0  0  0  0  0  0  0  0  0  0  0  0
    4.7738    0.6956   -2.3546 C   0  0  0  0  0  0  0  0  0  0  0  0
    2.2723   -2.5382   -0.3127 C   0  0  0  0  0  0  0  0  0  0  0  0
    0.6638   -0.9235   -1.1146 C   0  0  0  0  0  0  0  0  0  0  0  0
   -3.2269   -1.6470    0.2676 C   0  0  0  0  0  0  0  0  0  0  0  0
   -1.7752    1.1164    1.4181 C   0  0  0  0  0  0  0  0  0  0  0  0
   -3.7121    3.1796    1.3615 C   0  0  0  0  0  0  0  0  0  0  0  0
   -6.4231    2.0889    0.2595 C   0  0  0  0  0  0  0  0  0  0  0  0
    4.8213    1.7057    3.0218 C   0  0  0  0  0  0  0  0  0  0  0  0
    7.1361    1.3324    2.4981 C   0  0  0  0  0  0  0  0  0  0  0  0
   -1.4556   -2.9979   -0.1847 C   0  0  0  0  0  0  0  0  0  0  0  0
   -1.4588    2.4106    1.8467 C   0  0  0  0  0  0  0  0  0  0  0  0
   -2.4139    3.4249    1.8179 C   0  0  0  0  0  0  0  0  0  0  0  0
   -4.0689   -2.7353    0.3728 C   0  0  0  0  0  0  0  0  0  0  0  0
   -3.4803   -3.9673    0.1730 C   0  0  0  0  0  0  0  0  0  0  0  0
    0.1064    1.7789   -2.1200 C   0  0  0  0  0  0  0  0  0  0  0  0
    2.5390   -3.9651    1.5710 C   0  0  0  0  0  0  0  0  0  0  0  0
    0.1848    3.1933   -2.5880 C   0  0  0  0  0  0  0  0  0  0  0  0
   -0.9161    3.8415   -2.9811 C   0  0  0  0  0  0  0  0  0  0  0  0
    4.7986    2.4408   -0.4127 H   0  0  0  0  0  0  0  0  0  0  0  0
    3.4995    1.7632    0.5459 H   0  0  0  0  0  0  0  0  0  0  0  0
    5.0871   -0.1383    1.2603 H   0  0  0  0  0  0  0  0  0  0  0  0
    6.3121    0.5981    0.2448 H   0  0  0  0  0  0  0  0  0  0  0  0
    4.3161   -1.8763   -0.2286 H   0  0  0  0  0  0  0  0  0  0  0  0
   -5.8505   -0.5446   -0.2542 H   0  0  0  0  0  0  0  0  0  0  0  0
    4.1168    1.0398   -3.1601 H   0  0  0  0  0  0  0  0  0  0  0  0
    5.1799   -0.2828   -2.6331 H   0  0  0  0  0  0  0  0  0  0  0  0
    5.6158    1.3930   -2.2893 H   0  0  0  0  0  0  0  0  0  0  0  0
   -0.3482   -0.7246   -1.4201 H   0  0  0  0  0  0  0  0  0  0  0  0
   -1.0142    0.3427    1.4559 H   0  0  0  0  0  0  0  0  0  0  0  0
   -4.4510    3.9737    1.3414 H   0  0  0  0  0  0  0  0  0  0  0  0
   -6.7427    2.4779    1.2296 H   0  0  0  0  0  0  0  0  0  0  0  0
   -6.2374    2.9046   -0.4438 H   0  0  0  0  0  0  0  0  0  0  0  0
   -7.1899    1.4216   -0.1420 H   0  0  0  0  0  0  0  0  0  0  0  0
    0.2260   -4.1036   -0.4600 H   0  0  0  0  0  0  0  0  0  0  0  0
    2.1582    1.9192   -1.8432 H   0  0  0  0  0  0  0  0  0  0  0  0
    3.8541    2.0755    2.6682 H   0  0  0  0  0  0  0  0  0  0  0  0
    5.1203    2.3778    3.8347 H   0  0  0  0  0  0  0  0  0  0  0  0
    4.6755    0.7058    3.4470 H   0  0  0  0  0  0  0  0  0  0  0  0
    7.9082    1.4008    1.7236 H   0  0  0  0  0  0  0  0  0  0  0  0
    7.1347    0.3115    2.8972 H   0  0  0  0  0  0  0  0  0  0  0  0
    7.4385    2.0161    3.2992 H   0  0  0  0  0  0  0  0  0  0  0  0
   -0.4557    2.6253    2.2059 H   0  0  0  0  0  0  0  0  0  0  0  0
   -2.1463    4.4230    2.1553 H   0  0  0  0  0  0  0  0  0  0  0  0
   -5.1232   -2.6681    0.6100 H   0  0  0  0  0  0  0  0  0  0  0  0
   -4.0613   -4.8810    0.2391 H   0  0  0  0  0  0  0  0  0  0  0  0
    3.2739   -3.3198    2.0626 H   0  0  0  0  0  0  0  0  0  0  0  0
    1.5375   -3.7579    1.9610 H   0  0  0  0  0  0  0  0  0  0  0  0
    2.7891   -5.0074    1.7870 H   0  0  0  0  0  0  0  0  0  0  0  0
    1.1475    3.6924   -2.6066 H   0  0  0  0  0  0  0  0  0  0  0  0
   -0.8478    4.8700   -3.3196 H   0  0  0  0  0  0  0  0  0  0  0  0
   -1.8981    3.3815   -2.9777 H   0  0  0  0  0  0  0  0  0  0  0  0
  1 21  1  0  0  0  0
  1 35  1  0  0  0  0
  2 34  2  0  0  0  0
  3 10  1  0  0  0  0
  3 11  1  0  0  0  0
  3 20  1  0  0  0  0
  4 14  1  0  0  0  0
  4 18  1  0  0  0  0
  4 26  1  0  0  0  0
  5 12  1  0  0  0  0
  5 27  1  0  0  0  0
  5 28  1  0  0  0  0
  6 19  1  0  0  0  0
  6 29  1  0  0  0  0
  6 53  1  0  0  0  0
  7 16  1  0  0  0  0
  7 34  1  0  0  0  0
  7 54  1  0  0  0  0
  8 23  2  0  0  0  0
  8 29  1  0  0  0  0
  9 29  2  0  0  0  0
  9 33  1  0  0  0  0
 10 12  1  0  0  0  0
 10 38  1  0  0  0  0
 10 39  1  0  0  0  0
 11 16  1  0  0  0  0
 11 17  2  0  0  0  0
 12 40  1  0  0  0  0
 12 41  1  0  0  0  0
 13 14  1  0  0  0  0
 13 15  1  0  0  0  0
 13 24  2  0  0  0  0
 14 25  2  0  0  0  0
 15 18  2  0  0  0  0
 15 23  1  0  0  0  0
 16 22  2  0  0  0  0
 17 21  1  0  0  0  0
 17 42  1  0  0  0  0
 18 43  1  0  0  0  0
 19 21  2  0  0  0  0
 19 22  1  0  0  0  0
 20 44  1  0  0  0  0
 20 45  1  0  0  0  0
 20 46  1  0  0  0  0
 22 47  1  0  0  0  0
 23 32  1  0  0  0  0
 24 30  1  0  0  0  0
 24 48  1  0  0  0  0
 25 31  1  0  0  0  0
 25 49  1  0  0  0  0
 26 50  1  0  0  0  0
 26 51  1  0  0  0  0
 26 52  1  0  0  0  0
 27 55  1  0  0  0  0
 27 56  1  0  0  0  0
 27 57  1  0  0  0  0
 28 58  1  0  0  0  0
 28 59  1  0  0  0  0
 28 60  1  0  0  0  0
 30 31  2  0  0  0  0
 30 61  1  0  0  0  0
 31 62  1  0  0  0  0
 32 33  2  0  0  0  0
 32 63  1  0  0  0  0
 33 64  1  0  0  0  0
 34 36  1  0  0  0  0
 35 65  1  0  0  0  0
 35 66  1  0  0  0  0
 35 67  1  0  0  0  0
 36 37  2  0  0  0  0
 36 68  1  0  0  0  0
 37 69  1  0  0  0  0
 37 70  1  0  0  0  0
M  END
> <PUBCHEM_COMPOUND_CID>
71496458

> <PUBCHEM_CONFORMER_RMSD>
1.2

> <PUBCHEM_CONFORMER_DIVERSEORDER>
1
7
39
69
65
77
27
78
36
32
50
76
33
72
19
28
56
9
26
68
46
16
63
44
31
20
35
61
51
5
64
8
74
71
52
38
4
75
14
17
58
40
60
67
34
11
79
18
66
6
57
73
41
21
70
80
42
13
47
59
37
12
45
15
49
3
53
43
54
30
2
10
62
23
29
48
22
24
25
55

> <PUBCHEM_MMFF94_PARTIAL_CHARGES>
50
1 -0.36
10 0.37
11 0.1
12 0.27
14 -0.15
15 -0.05
16 0.12
17 -0.15
18 -0.3
19 0.1
2 -0.57
20 0.37
21 0.08
22 -0.15
23 0.36
24 -0.15
25 -0.15
26 0.26
27 0.27
28 0.27
29 0.72
3 -0.84
30 -0.15
31 -0.15
32 -0.15
33 0.16
34 0.62
35 0.28
36 -0.14
37 -0.3
4 0.05
42 0.15
43 0.15
47 0.15
48 0.15
49 0.15
5 -0.81
53 0.4
54 0.37
6 -0.6
61 0.15
62 0.15
63 0.15
64 0.15
68 0.15
69 0.15
7 -0.55
70 0.15
8 -0.62
9 -0.62

> <PUBCHEM_EFFECTIVE_ROTOR_COUNT>
11

> <PUBCHEM_PHARMACOPHORE_FEATURES>
14
1 1 acceptor
1 2 acceptor
1 3 cation
1 37 hydrophobe
1 4 cation
1 5 cation
1 6 donor
1 7 donor
1 8 acceptor
4 6 8 9 29 cation
5 4 13 14 15 18 rings
6 11 16 17 19 21 22 rings
6 13 14 24 25 30 31 rings
6 8 9 23 29 32 33 rings

> <PUBCHEM_HEAVY_ATOM_COUNT>
37

> <PUBCHEM_ATOM_DEF_STEREO_COUNT>
0

> <PUBCHEM_ATOM_UDEF_STEREO_COUNT>
0

> <PUBCHEM_BOND_DEF_STEREO_COUNT>
0

> <PUBCHEM_BOND_UDEF_STEREO_COUNT>
0

> <PUBCHEM_ISOTOPIC_ATOM_COUNT>
0

> <PUBCHEM_COMPONENT_COUNT>
1

> <PUBCHEM_CACTVS_TAUTO_COUNT>
6

> <PUBCHEM_CONFORMER_ID>
0442F30A00000001

> <PUBCHEM_MMFF94_ENERGY>
140.4079

> <PUBCHEM_FEATURE_SELFOVERLAP>
71.138

> <PUBCHEM_SHAPE_FINGERPRINT>
10439779 11 18408889568082662741
11007060 377 17036456249132935780
11513181 2 17988373563644089743
12422481 6 18187072932896613938
12788726 201 17834132101193318638
13560911 43 17752772608640584863
13965767 371 18118980086998001602
14068700 675 18122067769204997823
14395042 24 18190466142282702915
14705955 166 18128242592864222712
14739800 52 18272643529003254922
15003188 8 18334016073242204349
20511986 3 18339355276116085839
20642791 105 18264494056540423199
20764821 26 17982467189148010601
21033648 29 18129669719706367802
2132832 1 18048037664428969119
23559900 14 18129682832167572524
392239 28 18057607761823158714
469060 322 18187363285333381252
9981440 41 18411143553982682155

> <PUBCHEM_SHAPE_MULTIPOLES>
714.84
12.87
5.73
2.65
8.32
3.92
0.37
-6.41
-8.14
-3.44
-0.1
3.39
-3.41
0.26

> <PUBCHEM_SHAPE_SELFOVERLAP>
1535.608

> <PUBCHEM_SHAPE_VOLUME>
395.9

> <PUBCHEM_COORDINATE_TYPE>
2
5
10

$$$$
